// -*- C++ -*-
// File generated by PyFoam - sorry for the ugliness

FoamFile
{
 version 2.0;
 format ascii;
 class dictionary;
 object controlDict;
}

libs
  (
    "libOpenFOAM.so"
    "libsimpleSwakFunctionObjects.so"
    "libswakFunctionObjects.so"
    "libgroovyBC.so"
  );

application myFluidFoam;

startFrom latestTime;

startTime 0;

stopAt endTime;

endTime 3000;

deltaT 1;

writeControl timeStep;

writeInterval 100;

purgeWrite 0;

writeFormat ascii;

writePrecision 6;

writeCompression no;
timeFormat general;

timePrecision 6;

runTimeModifiable yes;
functions
{
    enth0.000234375
    {
	    type	swakExpression;
	    outputControl	timeStep;
	    valueType	surface;
	    surfaceName	cutPlane0.000234375;
	    surface {
		    type	plane;
		    basePoint	(0.000234375 0 0);
		    normalVector	(1 0 0);
		    interpolate	false;
	    }
	    verbose	true;
	    expression	"sum(rho*U.x*he*area())/sum(rho*U.x*area())";
	    accumulations (
		    average
	    );
    }
    enth0.000703125
    {
	    type	swakExpression;
	    outputControl	timeStep;
	    valueType	surface;
	    surfaceName	cutPlane0.000703125;
	    surface {
		    type	plane;
		    basePoint	(0.000703125 0 0);
		    normalVector	(1 0 0);
		    interpolate	false;
	    }
	    verbose	true;
	    expression	"sum(rho*U.x*he*area())/sum(rho*U.x*area())";
	    accumulations (
		    average
	    );
    }
    enth0.001171875
    {
	    type	swakExpression;
	    outputControl	timeStep;
	    valueType	surface;
	    surfaceName	cutPlane0.001171875;
	    surface {
		    type	plane;
		    basePoint	(0.001171875 0 0);
		    normalVector	(1 0 0);
		    interpolate	false;
	    }
	    verbose	true;
	    expression	"sum(rho*U.x*he*area())/sum(rho*U.x*area())";
	    accumulations (
		    average
	    );
    }
    enth0.001640625
    {
	    type	swakExpression;
	    outputControl	timeStep;
	    valueType	surface;
	    surfaceName	cutPlane0.001640625;
	    surface {
		    type	plane;
		    basePoint	(0.001640625 0 0);
		    normalVector	(1 0 0);
		    interpolate	false;
	    }
	    verbose	true;
	    expression	"sum(rho*U.x*he*area())/sum(rho*U.x*area())";
	    accumulations (
		    average
	    );
    }
    enth0.002109375
    {
	    type	swakExpression;
	    outputControl	timeStep;
	    valueType	surface;
	    surfaceName	cutPlane0.002109375;
	    surface {
		    type	plane;
		    basePoint	(0.002109375 0 0);
		    normalVector	(1 0 0);
		    interpolate	false;
	    }
	    verbose	true;
	    expression	"sum(rho*U.x*he*area())/sum(rho*U.x*area())";
	    accumulations (
		    average
	    );
    }
    enth0.002578125
    {
	    type	swakExpression;
	    outputControl	timeStep;
	    valueType	surface;
	    surfaceName	cutPlane0.002578125;
	    surface {
		    type	plane;
		    basePoint	(0.002578125 0 0);
		    normalVector	(1 0 0);
		    interpolate	false;
	    }
	    verbose	true;
	    expression	"sum(rho*U.x*he*area())/sum(rho*U.x*area())";
	    accumulations (
		    average
	    );
    }
    enth0.003046875
    {
	    type	swakExpression;
	    outputControl	timeStep;
	    valueType	surface;
	    surfaceName	cutPlane0.003046875;
	    surface {
		    type	plane;
		    basePoint	(0.003046875 0 0);
		    normalVector	(1 0 0);
		    interpolate	false;
	    }
	    verbose	true;
	    expression	"sum(rho*U.x*he*area())/sum(rho*U.x*area())";
	    accumulations (
		    average
	    );
    }
    enth0.003515625
    {
	    type	swakExpression;
	    outputControl	timeStep;
	    valueType	surface;
	    surfaceName	cutPlane0.003515625;
	    surface {
		    type	plane;
		    basePoint	(0.003515625 0 0);
		    normalVector	(1 0 0);
		    interpolate	false;
	    }
	    verbose	true;
	    expression	"sum(rho*U.x*he*area())/sum(rho*U.x*area())";
	    accumulations (
		    average
	    );
    }
    enth0.003984375
    {
	    type	swakExpression;
	    outputControl	timeStep;
	    valueType	surface;
	    surfaceName	cutPlane0.003984375;
	    surface {
		    type	plane;
		    basePoint	(0.003984375 0 0);
		    normalVector	(1 0 0);
		    interpolate	false;
	    }
	    verbose	true;
	    expression	"sum(rho*U.x*he*area())/sum(rho*U.x*area())";
	    accumulations (
		    average
	    );
    }
    enth0.004453125
    {
	    type	swakExpression;
	    outputControl	timeStep;
	    valueType	surface;
	    surfaceName	cutPlane0.004453125;
	    surface {
		    type	plane;
		    basePoint	(0.004453125 0 0);
		    normalVector	(1 0 0);
		    interpolate	false;
	    }
	    verbose	true;
	    expression	"sum(rho*U.x*he*area())/sum(rho*U.x*area())";
	    accumulations (
		    average
	    );
    }
    enth0.004921875
    {
	    type	swakExpression;
	    outputControl	timeStep;
	    valueType	surface;
	    surfaceName	cutPlane0.004921875;
	    surface {
		    type	plane;
		    basePoint	(0.004921875 0 0);
		    normalVector	(1 0 0);
		    interpolate	false;
	    }
	    verbose	true;
	    expression	"sum(rho*U.x*he*area())/sum(rho*U.x*area())";
	    accumulations (
		    average
	    );
    }
    enth0.005390625
    {
	    type	swakExpression;
	    outputControl	timeStep;
	    valueType	surface;
	    surfaceName	cutPlane0.005390625;
	    surface {
		    type	plane;
		    basePoint	(0.005390625 0 0);
		    normalVector	(1 0 0);
		    interpolate	false;
	    }
	    verbose	true;
	    expression	"sum(rho*U.x*he*area())/sum(rho*U.x*area())";
	    accumulations (
		    average
	    );
    }
    enth0.005859375
    {
	    type	swakExpression;
	    outputControl	timeStep;
	    valueType	surface;
	    surfaceName	cutPlane0.005859375;
	    surface {
		    type	plane;
		    basePoint	(0.005859375 0 0);
		    normalVector	(1 0 0);
		    interpolate	false;
	    }
	    verbose	true;
	    expression	"sum(rho*U.x*he*area())/sum(rho*U.x*area())";
	    accumulations (
		    average
	    );
    }
    enth0.006328125
    {
	    type	swakExpression;
	    outputControl	timeStep;
	    valueType	surface;
	    surfaceName	cutPlane0.006328125;
	    surface {
		    type	plane;
		    basePoint	(0.006328125 0 0);
		    normalVector	(1 0 0);
		    interpolate	false;
	    }
	    verbose	true;
	    expression	"sum(rho*U.x*he*area())/sum(rho*U.x*area())";
	    accumulations (
		    average
	    );
    }
    enth0.006796875
    {
	    type	swakExpression;
	    outputControl	timeStep;
	    valueType	surface;
	    surfaceName	cutPlane0.006796875;
	    surface {
		    type	plane;
		    basePoint	(0.006796875 0 0);
		    normalVector	(1 0 0);
		    interpolate	false;
	    }
	    verbose	true;
	    expression	"sum(rho*U.x*he*area())/sum(rho*U.x*area())";
	    accumulations (
		    average
	    );
    }
    enth0.007265625
    {
	    type	swakExpression;
	    outputControl	timeStep;
	    valueType	surface;
	    surfaceName	cutPlane0.007265625;
	    surface {
		    type	plane;
		    basePoint	(0.007265625 0 0);
		    normalVector	(1 0 0);
		    interpolate	false;
	    }
	    verbose	true;
	    expression	"sum(rho*U.x*he*area())/sum(rho*U.x*area())";
	    accumulations (
		    average
	    );
    }
    enth0.007734375
    {
	    type	swakExpression;
	    outputControl	timeStep;
	    valueType	surface;
	    surfaceName	cutPlane0.007734375;
	    surface {
		    type	plane;
		    basePoint	(0.007734375 0 0);
		    normalVector	(1 0 0);
		    interpolate	false;
	    }
	    verbose	true;
	    expression	"sum(rho*U.x*he*area())/sum(rho*U.x*area())";
	    accumulations (
		    average
	    );
    }
    enth0.008203125
    {
	    type	swakExpression;
	    outputControl	timeStep;
	    valueType	surface;
	    surfaceName	cutPlane0.008203125;
	    surface {
		    type	plane;
		    basePoint	(0.008203125 0 0);
		    normalVector	(1 0 0);
		    interpolate	false;
	    }
	    verbose	true;
	    expression	"sum(rho*U.x*he*area())/sum(rho*U.x*area())";
	    accumulations (
		    average
	    );
    }
    enth0.008671875
    {
	    type	swakExpression;
	    outputControl	timeStep;
	    valueType	surface;
	    surfaceName	cutPlane0.008671875;
	    surface {
		    type	plane;
		    basePoint	(0.008671875 0 0);
		    normalVector	(1 0 0);
		    interpolate	false;
	    }
	    verbose	true;
	    expression	"sum(rho*U.x*he*area())/sum(rho*U.x*area())";
	    accumulations (
		    average
	    );
    }
    enth0.009140625
    {
	    type	swakExpression;
	    outputControl	timeStep;
	    valueType	surface;
	    surfaceName	cutPlane0.009140625;
	    surface {
		    type	plane;
		    basePoint	(0.009140625 0 0);
		    normalVector	(1 0 0);
		    interpolate	false;
	    }
	    verbose	true;
	    expression	"sum(rho*U.x*he*area())/sum(rho*U.x*area())";
	    accumulations (
		    average
	    );
    }
    enth0.009609375
    {
	    type	swakExpression;
	    outputControl	timeStep;
	    valueType	surface;
	    surfaceName	cutPlane0.009609375;
	    surface {
		    type	plane;
		    basePoint	(0.009609375 0 0);
		    normalVector	(1 0 0);
		    interpolate	false;
	    }
	    verbose	true;
	    expression	"sum(rho*U.x*he*area())/sum(rho*U.x*area())";
	    accumulations (
		    average
	    );
    }
    enth0.010078125
    {
	    type	swakExpression;
	    outputControl	timeStep;
	    valueType	surface;
	    surfaceName	cutPlane0.010078125;
	    surface {
		    type	plane;
		    basePoint	(0.010078125 0 0);
		    normalVector	(1 0 0);
		    interpolate	false;
	    }
	    verbose	true;
	    expression	"sum(rho*U.x*he*area())/sum(rho*U.x*area())";
	    accumulations (
		    average
	    );
    }
    enth0.010546875
    {
	    type	swakExpression;
	    outputControl	timeStep;
	    valueType	surface;
	    surfaceName	cutPlane0.010546875;
	    surface {
		    type	plane;
		    basePoint	(0.010546875 0 0);
		    normalVector	(1 0 0);
		    interpolate	false;
	    }
	    verbose	true;
	    expression	"sum(rho*U.x*he*area())/sum(rho*U.x*area())";
	    accumulations (
		    average
	    );
    }
    enth0.011015625
    {
	    type	swakExpression;
	    outputControl	timeStep;
	    valueType	surface;
	    surfaceName	cutPlane0.011015625;
	    surface {
		    type	plane;
		    basePoint	(0.011015625 0 0);
		    normalVector	(1 0 0);
		    interpolate	false;
	    }
	    verbose	true;
	    expression	"sum(rho*U.x*he*area())/sum(rho*U.x*area())";
	    accumulations (
		    average
	    );
    }
    enth0.011484375
    {
	    type	swakExpression;
	    outputControl	timeStep;
	    valueType	surface;
	    surfaceName	cutPlane0.011484375;
	    surface {
		    type	plane;
		    basePoint	(0.011484375 0 0);
		    normalVector	(1 0 0);
		    interpolate	false;
	    }
	    verbose	true;
	    expression	"sum(rho*U.x*he*area())/sum(rho*U.x*area())";
	    accumulations (
		    average
	    );
    }
    enth0.011953125
    {
	    type	swakExpression;
	    outputControl	timeStep;
	    valueType	surface;
	    surfaceName	cutPlane0.011953125;
	    surface {
		    type	plane;
		    basePoint	(0.011953125 0 0);
		    normalVector	(1 0 0);
		    interpolate	false;
	    }
	    verbose	true;
	    expression	"sum(rho*U.x*he*area())/sum(rho*U.x*area())";
	    accumulations (
		    average
	    );
    }
    enth0.012421875
    {
	    type	swakExpression;
	    outputControl	timeStep;
	    valueType	surface;
	    surfaceName	cutPlane0.012421875;
	    surface {
		    type	plane;
		    basePoint	(0.012421875 0 0);
		    normalVector	(1 0 0);
		    interpolate	false;
	    }
	    verbose	true;
	    expression	"sum(rho*U.x*he*area())/sum(rho*U.x*area())";
	    accumulations (
		    average
	    );
    }
    enth0.012890625
    {
	    type	swakExpression;
	    outputControl	timeStep;
	    valueType	surface;
	    surfaceName	cutPlane0.012890625;
	    surface {
		    type	plane;
		    basePoint	(0.012890625 0 0);
		    normalVector	(1 0 0);
		    interpolate	false;
	    }
	    verbose	true;
	    expression	"sum(rho*U.x*he*area())/sum(rho*U.x*area())";
	    accumulations (
		    average
	    );
    }
    enth0.013359375
    {
	    type	swakExpression;
	    outputControl	timeStep;
	    valueType	surface;
	    surfaceName	cutPlane0.013359375;
	    surface {
		    type	plane;
		    basePoint	(0.013359375 0 0);
		    normalVector	(1 0 0);
		    interpolate	false;
	    }
	    verbose	true;
	    expression	"sum(rho*U.x*he*area())/sum(rho*U.x*area())";
	    accumulations (
		    average
	    );
    }
    enth0.013828125
    {
	    type	swakExpression;
	    outputControl	timeStep;
	    valueType	surface;
	    surfaceName	cutPlane0.013828125;
	    surface {
		    type	plane;
		    basePoint	(0.013828125 0 0);
		    normalVector	(1 0 0);
		    interpolate	false;
	    }
	    verbose	true;
	    expression	"sum(rho*U.x*he*area())/sum(rho*U.x*area())";
	    accumulations (
		    average
	    );
    }
    enth0.014296875
    {
	    type	swakExpression;
	    outputControl	timeStep;
	    valueType	surface;
	    surfaceName	cutPlane0.014296875;
	    surface {
		    type	plane;
		    basePoint	(0.014296875 0 0);
		    normalVector	(1 0 0);
		    interpolate	false;
	    }
	    verbose	true;
	    expression	"sum(rho*U.x*he*area())/sum(rho*U.x*area())";
	    accumulations (
		    average
	    );
    }
    enth0.014765625
    {
	    type	swakExpression;
	    outputControl	timeStep;
	    valueType	surface;
	    surfaceName	cutPlane0.014765625;
	    surface {
		    type	plane;
		    basePoint	(0.014765625 0 0);
		    normalVector	(1 0 0);
		    interpolate	false;
	    }
	    verbose	true;
	    expression	"sum(rho*U.x*he*area())/sum(rho*U.x*area())";
	    accumulations (
		    average
	    );
    }
    enth0.015234375
    {
	    type	swakExpression;
	    outputControl	timeStep;
	    valueType	surface;
	    surfaceName	cutPlane0.015234375;
	    surface {
		    type	plane;
		    basePoint	(0.015234375 0 0);
		    normalVector	(1 0 0);
		    interpolate	false;
	    }
	    verbose	true;
	    expression	"sum(rho*U.x*he*area())/sum(rho*U.x*area())";
	    accumulations (
		    average
	    );
    }
    enth0.015703125
    {
	    type	swakExpression;
	    outputControl	timeStep;
	    valueType	surface;
	    surfaceName	cutPlane0.015703125;
	    surface {
		    type	plane;
		    basePoint	(0.015703125 0 0);
		    normalVector	(1 0 0);
		    interpolate	false;
	    }
	    verbose	true;
	    expression	"sum(rho*U.x*he*area())/sum(rho*U.x*area())";
	    accumulations (
		    average
	    );
    }
    enth0.016171875
    {
	    type	swakExpression;
	    outputControl	timeStep;
	    valueType	surface;
	    surfaceName	cutPlane0.016171875;
	    surface {
		    type	plane;
		    basePoint	(0.016171875 0 0);
		    normalVector	(1 0 0);
		    interpolate	false;
	    }
	    verbose	true;
	    expression	"sum(rho*U.x*he*area())/sum(rho*U.x*area())";
	    accumulations (
		    average
	    );
    }
    enth0.016640625
    {
	    type	swakExpression;
	    outputControl	timeStep;
	    valueType	surface;
	    surfaceName	cutPlane0.016640625;
	    surface {
		    type	plane;
		    basePoint	(0.016640625 0 0);
		    normalVector	(1 0 0);
		    interpolate	false;
	    }
	    verbose	true;
	    expression	"sum(rho*U.x*he*area())/sum(rho*U.x*area())";
	    accumulations (
		    average
	    );
    }
    enth0.017109375
    {
	    type	swakExpression;
	    outputControl	timeStep;
	    valueType	surface;
	    surfaceName	cutPlane0.017109375;
	    surface {
		    type	plane;
		    basePoint	(0.017109375 0 0);
		    normalVector	(1 0 0);
		    interpolate	false;
	    }
	    verbose	true;
	    expression	"sum(rho*U.x*he*area())/sum(rho*U.x*area())";
	    accumulations (
		    average
	    );
    }
    enth0.017578125
    {
	    type	swakExpression;
	    outputControl	timeStep;
	    valueType	surface;
	    surfaceName	cutPlane0.017578125;
	    surface {
		    type	plane;
		    basePoint	(0.017578125 0 0);
		    normalVector	(1 0 0);
		    interpolate	false;
	    }
	    verbose	true;
	    expression	"sum(rho*U.x*he*area())/sum(rho*U.x*area())";
	    accumulations (
		    average
	    );
    }
    enth0.018046875
    {
	    type	swakExpression;
	    outputControl	timeStep;
	    valueType	surface;
	    surfaceName	cutPlane0.018046875;
	    surface {
		    type	plane;
		    basePoint	(0.018046875 0 0);
		    normalVector	(1 0 0);
		    interpolate	false;
	    }
	    verbose	true;
	    expression	"sum(rho*U.x*he*area())/sum(rho*U.x*area())";
	    accumulations (
		    average
	    );
    }
    enth0.018515625
    {
	    type	swakExpression;
	    outputControl	timeStep;
	    valueType	surface;
	    surfaceName	cutPlane0.018515625;
	    surface {
		    type	plane;
		    basePoint	(0.018515625 0 0);
		    normalVector	(1 0 0);
		    interpolate	false;
	    }
	    verbose	true;
	    expression	"sum(rho*U.x*he*area())/sum(rho*U.x*area())";
	    accumulations (
		    average
	    );
    }
    enth0.018984375
    {
	    type	swakExpression;
	    outputControl	timeStep;
	    valueType	surface;
	    surfaceName	cutPlane0.018984375;
	    surface {
		    type	plane;
		    basePoint	(0.018984375 0 0);
		    normalVector	(1 0 0);
		    interpolate	false;
	    }
	    verbose	true;
	    expression	"sum(rho*U.x*he*area())/sum(rho*U.x*area())";
	    accumulations (
		    average
	    );
    }
    enth0.019453125
    {
	    type	swakExpression;
	    outputControl	timeStep;
	    valueType	surface;
	    surfaceName	cutPlane0.019453125;
	    surface {
		    type	plane;
		    basePoint	(0.019453125 0 0);
		    normalVector	(1 0 0);
		    interpolate	false;
	    }
	    verbose	true;
	    expression	"sum(rho*U.x*he*area())/sum(rho*U.x*area())";
	    accumulations (
		    average
	    );
    }
    enth0.019921875
    {
	    type	swakExpression;
	    outputControl	timeStep;
	    valueType	surface;
	    surfaceName	cutPlane0.019921875;
	    surface {
		    type	plane;
		    basePoint	(0.019921875 0 0);
		    normalVector	(1 0 0);
		    interpolate	false;
	    }
	    verbose	true;
	    expression	"sum(rho*U.x*he*area())/sum(rho*U.x*area())";
	    accumulations (
		    average
	    );
    }
    enth0.020390625
    {
	    type	swakExpression;
	    outputControl	timeStep;
	    valueType	surface;
	    surfaceName	cutPlane0.020390625;
	    surface {
		    type	plane;
		    basePoint	(0.020390625 0 0);
		    normalVector	(1 0 0);
		    interpolate	false;
	    }
	    verbose	true;
	    expression	"sum(rho*U.x*he*area())/sum(rho*U.x*area())";
	    accumulations (
		    average
	    );
    }
    enth0.020859375
    {
	    type	swakExpression;
	    outputControl	timeStep;
	    valueType	surface;
	    surfaceName	cutPlane0.020859375;
	    surface {
		    type	plane;
		    basePoint	(0.020859375 0 0);
		    normalVector	(1 0 0);
		    interpolate	false;
	    }
	    verbose	true;
	    expression	"sum(rho*U.x*he*area())/sum(rho*U.x*area())";
	    accumulations (
		    average
	    );
    }
    enth0.021328125
    {
	    type	swakExpression;
	    outputControl	timeStep;
	    valueType	surface;
	    surfaceName	cutPlane0.021328125;
	    surface {
		    type	plane;
		    basePoint	(0.021328125 0 0);
		    normalVector	(1 0 0);
		    interpolate	false;
	    }
	    verbose	true;
	    expression	"sum(rho*U.x*he*area())/sum(rho*U.x*area())";
	    accumulations (
		    average
	    );
    }
    enth0.021796875
    {
	    type	swakExpression;
	    outputControl	timeStep;
	    valueType	surface;
	    surfaceName	cutPlane0.021796875;
	    surface {
		    type	plane;
		    basePoint	(0.021796875 0 0);
		    normalVector	(1 0 0);
		    interpolate	false;
	    }
	    verbose	true;
	    expression	"sum(rho*U.x*he*area())/sum(rho*U.x*area())";
	    accumulations (
		    average
	    );
    }
    enth0.022265625
    {
	    type	swakExpression;
	    outputControl	timeStep;
	    valueType	surface;
	    surfaceName	cutPlane0.022265625;
	    surface {
		    type	plane;
		    basePoint	(0.022265625 0 0);
		    normalVector	(1 0 0);
		    interpolate	false;
	    }
	    verbose	true;
	    expression	"sum(rho*U.x*he*area())/sum(rho*U.x*area())";
	    accumulations (
		    average
	    );
    }
    enth0.022734375
    {
	    type	swakExpression;
	    outputControl	timeStep;
	    valueType	surface;
	    surfaceName	cutPlane0.022734375;
	    surface {
		    type	plane;
		    basePoint	(0.022734375 0 0);
		    normalVector	(1 0 0);
		    interpolate	false;
	    }
	    verbose	true;
	    expression	"sum(rho*U.x*he*area())/sum(rho*U.x*area())";
	    accumulations (
		    average
	    );
    }
    enth0.023203125
    {
	    type	swakExpression;
	    outputControl	timeStep;
	    valueType	surface;
	    surfaceName	cutPlane0.023203125;
	    surface {
		    type	plane;
		    basePoint	(0.023203125 0 0);
		    normalVector	(1 0 0);
		    interpolate	false;
	    }
	    verbose	true;
	    expression	"sum(rho*U.x*he*area())/sum(rho*U.x*area())";
	    accumulations (
		    average
	    );
    }
    enth0.023671875
    {
	    type	swakExpression;
	    outputControl	timeStep;
	    valueType	surface;
	    surfaceName	cutPlane0.023671875;
	    surface {
		    type	plane;
		    basePoint	(0.023671875 0 0);
		    normalVector	(1 0 0);
		    interpolate	false;
	    }
	    verbose	true;
	    expression	"sum(rho*U.x*he*area())/sum(rho*U.x*area())";
	    accumulations (
		    average
	    );
    }
    enth0.024140625
    {
	    type	swakExpression;
	    outputControl	timeStep;
	    valueType	surface;
	    surfaceName	cutPlane0.024140625;
	    surface {
		    type	plane;
		    basePoint	(0.024140625 0 0);
		    normalVector	(1 0 0);
		    interpolate	false;
	    }
	    verbose	true;
	    expression	"sum(rho*U.x*he*area())/sum(rho*U.x*area())";
	    accumulations (
		    average
	    );
    }
    enth0.024609375
    {
	    type	swakExpression;
	    outputControl	timeStep;
	    valueType	surface;
	    surfaceName	cutPlane0.024609375;
	    surface {
		    type	plane;
		    basePoint	(0.024609375 0 0);
		    normalVector	(1 0 0);
		    interpolate	false;
	    }
	    verbose	true;
	    expression	"sum(rho*U.x*he*area())/sum(rho*U.x*area())";
	    accumulations (
		    average
	    );
    }
    enth0.025078125
    {
	    type	swakExpression;
	    outputControl	timeStep;
	    valueType	surface;
	    surfaceName	cutPlane0.025078125;
	    surface {
		    type	plane;
		    basePoint	(0.025078125 0 0);
		    normalVector	(1 0 0);
		    interpolate	false;
	    }
	    verbose	true;
	    expression	"sum(rho*U.x*he*area())/sum(rho*U.x*area())";
	    accumulations (
		    average
	    );
    }
    enth0.025546875
    {
	    type	swakExpression;
	    outputControl	timeStep;
	    valueType	surface;
	    surfaceName	cutPlane0.025546875;
	    surface {
		    type	plane;
		    basePoint	(0.025546875 0 0);
		    normalVector	(1 0 0);
		    interpolate	false;
	    }
	    verbose	true;
	    expression	"sum(rho*U.x*he*area())/sum(rho*U.x*area())";
	    accumulations (
		    average
	    );
    }
    enth0.026015625
    {
	    type	swakExpression;
	    outputControl	timeStep;
	    valueType	surface;
	    surfaceName	cutPlane0.026015625;
	    surface {
		    type	plane;
		    basePoint	(0.026015625 0 0);
		    normalVector	(1 0 0);
		    interpolate	false;
	    }
	    verbose	true;
	    expression	"sum(rho*U.x*he*area())/sum(rho*U.x*area())";
	    accumulations (
		    average
	    );
    }
    enth0.026484375
    {
	    type	swakExpression;
	    outputControl	timeStep;
	    valueType	surface;
	    surfaceName	cutPlane0.026484375;
	    surface {
		    type	plane;
		    basePoint	(0.026484375 0 0);
		    normalVector	(1 0 0);
		    interpolate	false;
	    }
	    verbose	true;
	    expression	"sum(rho*U.x*he*area())/sum(rho*U.x*area())";
	    accumulations (
		    average
	    );
    }
    enth0.026953125
    {
	    type	swakExpression;
	    outputControl	timeStep;
	    valueType	surface;
	    surfaceName	cutPlane0.026953125;
	    surface {
		    type	plane;
		    basePoint	(0.026953125 0 0);
		    normalVector	(1 0 0);
		    interpolate	false;
	    }
	    verbose	true;
	    expression	"sum(rho*U.x*he*area())/sum(rho*U.x*area())";
	    accumulations (
		    average
	    );
    }
    enth0.027421875
    {
	    type	swakExpression;
	    outputControl	timeStep;
	    valueType	surface;
	    surfaceName	cutPlane0.027421875;
	    surface {
		    type	plane;
		    basePoint	(0.027421875 0 0);
		    normalVector	(1 0 0);
		    interpolate	false;
	    }
	    verbose	true;
	    expression	"sum(rho*U.x*he*area())/sum(rho*U.x*area())";
	    accumulations (
		    average
	    );
    }
    enth0.027890625
    {
	    type	swakExpression;
	    outputControl	timeStep;
	    valueType	surface;
	    surfaceName	cutPlane0.027890625;
	    surface {
		    type	plane;
		    basePoint	(0.027890625 0 0);
		    normalVector	(1 0 0);
		    interpolate	false;
	    }
	    verbose	true;
	    expression	"sum(rho*U.x*he*area())/sum(rho*U.x*area())";
	    accumulations (
		    average
	    );
    }
    enth0.028359375
    {
	    type	swakExpression;
	    outputControl	timeStep;
	    valueType	surface;
	    surfaceName	cutPlane0.028359375;
	    surface {
		    type	plane;
		    basePoint	(0.028359375 0 0);
		    normalVector	(1 0 0);
		    interpolate	false;
	    }
	    verbose	true;
	    expression	"sum(rho*U.x*he*area())/sum(rho*U.x*area())";
	    accumulations (
		    average
	    );
    }
    enth0.028828125
    {
	    type	swakExpression;
	    outputControl	timeStep;
	    valueType	surface;
	    surfaceName	cutPlane0.028828125;
	    surface {
		    type	plane;
		    basePoint	(0.028828125 0 0);
		    normalVector	(1 0 0);
		    interpolate	false;
	    }
	    verbose	true;
	    expression	"sum(rho*U.x*he*area())/sum(rho*U.x*area())";
	    accumulations (
		    average
	    );
    }
    enth0.029296875
    {
	    type	swakExpression;
	    outputControl	timeStep;
	    valueType	surface;
	    surfaceName	cutPlane0.029296875;
	    surface {
		    type	plane;
		    basePoint	(0.029296875 0 0);
		    normalVector	(1 0 0);
		    interpolate	false;
	    }
	    verbose	true;
	    expression	"sum(rho*U.x*he*area())/sum(rho*U.x*area())";
	    accumulations (
		    average
	    );
    }
    enth0.029765625
    {
	    type	swakExpression;
	    outputControl	timeStep;
	    valueType	surface;
	    surfaceName	cutPlane0.029765625;
	    surface {
		    type	plane;
		    basePoint	(0.029765625 0 0);
		    normalVector	(1 0 0);
		    interpolate	false;
	    }
	    verbose	true;
	    expression	"sum(rho*U.x*he*area())/sum(rho*U.x*area())";
	    accumulations (
		    average
	    );
    }
    temp0.000234375
    {
	    type	swakExpression;
	    outputControl	timeStep;
	    valueType	surface;
	    surfaceName	cutPlane0.000234375;
	    surface {
		    type	plane;
		    basePoint	(0.000234375 0 0);
		    normalVector	(1 0 0);
		    interpolate	false;
	    }
	    verbose	true;
	    expression	"sum(rho*U.x*T*area())/sum(rho*U.x*area())";
	    accumulations (
		    average
	    );
    }
    temp0.000703125
    {
	    type	swakExpression;
	    outputControl	timeStep;
	    valueType	surface;
	    surfaceName	cutPlane0.000703125;
	    surface {
		    type	plane;
		    basePoint	(0.000703125 0 0);
		    normalVector	(1 0 0);
		    interpolate	false;
	    }
	    verbose	true;
	    expression	"sum(rho*U.x*T*area())/sum(rho*U.x*area())";
	    accumulations (
		    average
	    );
    }
    temp0.001171875
    {
	    type	swakExpression;
	    outputControl	timeStep;
	    valueType	surface;
	    surfaceName	cutPlane0.001171875;
	    surface {
		    type	plane;
		    basePoint	(0.001171875 0 0);
		    normalVector	(1 0 0);
		    interpolate	false;
	    }
	    verbose	true;
	    expression	"sum(rho*U.x*T*area())/sum(rho*U.x*area())";
	    accumulations (
		    average
	    );
    }
    temp0.001640625
    {
	    type	swakExpression;
	    outputControl	timeStep;
	    valueType	surface;
	    surfaceName	cutPlane0.001640625;
	    surface {
		    type	plane;
		    basePoint	(0.001640625 0 0);
		    normalVector	(1 0 0);
		    interpolate	false;
	    }
	    verbose	true;
	    expression	"sum(rho*U.x*T*area())/sum(rho*U.x*area())";
	    accumulations (
		    average
	    );
    }
    temp0.002109375
    {
	    type	swakExpression;
	    outputControl	timeStep;
	    valueType	surface;
	    surfaceName	cutPlane0.002109375;
	    surface {
		    type	plane;
		    basePoint	(0.002109375 0 0);
		    normalVector	(1 0 0);
		    interpolate	false;
	    }
	    verbose	true;
	    expression	"sum(rho*U.x*T*area())/sum(rho*U.x*area())";
	    accumulations (
		    average
	    );
    }
    temp0.002578125
    {
	    type	swakExpression;
	    outputControl	timeStep;
	    valueType	surface;
	    surfaceName	cutPlane0.002578125;
	    surface {
		    type	plane;
		    basePoint	(0.002578125 0 0);
		    normalVector	(1 0 0);
		    interpolate	false;
	    }
	    verbose	true;
	    expression	"sum(rho*U.x*T*area())/sum(rho*U.x*area())";
	    accumulations (
		    average
	    );
    }
    temp0.003046875
    {
	    type	swakExpression;
	    outputControl	timeStep;
	    valueType	surface;
	    surfaceName	cutPlane0.003046875;
	    surface {
		    type	plane;
		    basePoint	(0.003046875 0 0);
		    normalVector	(1 0 0);
		    interpolate	false;
	    }
	    verbose	true;
	    expression	"sum(rho*U.x*T*area())/sum(rho*U.x*area())";
	    accumulations (
		    average
	    );
    }
    temp0.003515625
    {
	    type	swakExpression;
	    outputControl	timeStep;
	    valueType	surface;
	    surfaceName	cutPlane0.003515625;
	    surface {
		    type	plane;
		    basePoint	(0.003515625 0 0);
		    normalVector	(1 0 0);
		    interpolate	false;
	    }
	    verbose	true;
	    expression	"sum(rho*U.x*T*area())/sum(rho*U.x*area())";
	    accumulations (
		    average
	    );
    }
    temp0.003984375
    {
	    type	swakExpression;
	    outputControl	timeStep;
	    valueType	surface;
	    surfaceName	cutPlane0.003984375;
	    surface {
		    type	plane;
		    basePoint	(0.003984375 0 0);
		    normalVector	(1 0 0);
		    interpolate	false;
	    }
	    verbose	true;
	    expression	"sum(rho*U.x*T*area())/sum(rho*U.x*area())";
	    accumulations (
		    average
	    );
    }
    temp0.004453125
    {
	    type	swakExpression;
	    outputControl	timeStep;
	    valueType	surface;
	    surfaceName	cutPlane0.004453125;
	    surface {