// -*- C++ -*-
// File generated by PyFoam - sorry for the ugliness

FoamFile
{
 version 2.0;
 format ascii;
 class dictionary;
 object fvSchemes;
}

ddtSchemes
{
  default steadyState;
}

gradSchemes
{
  default Gauss linear ;
}

divSchemes
{
  default no;
  div(phi,U) bounded Gauss vanLeer;
  div(phi,K) bounded Gauss vanLeer;
  div(phi,h) bounded Gauss vanLeer;
  div(phi,nuTilda) bounded Gauss vanLeer;
  div((muEff*dev2(T(grad(U))))) Gauss linear ;
  div((p*U)) Gauss linear ;
  div((devRhoReff&U)) Gauss linear ;
}

laplacianSchemes
{
  default Gauss linear orthogonal ;
}

interpolationSchemes
{
  default linear;
}

snGradSchemes
{
  default orthogonal;
}

fluxRequired
{
  default no;
  p /* empty */ ; 	/* empty *//* empty */
} 	// ************************************************************************* //

